Version 4
SHEET 1 1716 996
WIRE -48 -160 -512 -160
WIRE 224 -160 -48 -160
WIRE -512 -144 -512 -160
WIRE -48 -128 -48 -160
WIRE -512 -48 -512 -64
WIRE -48 -32 -48 -64
WIRE 64 -32 -48 -32
WIRE -704 -16 -880 -16
WIRE 224 -16 224 -160
WIRE -384 0 -512 0
WIRE -192 0 -384 0
WIRE -512 16 -512 0
WIRE -48 32 -48 -32
WIRE -608 64 -784 64
WIRE 176 64 160 64
WIRE -192 96 -192 0
WIRE -176 96 -192 96
WIRE 32 96 32 64
WIRE 160 96 160 64
WIRE 160 96 80 96
WIRE -704 112 -704 -16
WIRE -608 112 -608 64
WIRE -512 112 -512 96
WIRE 672 112 640 112
WIRE 720 112 672 112
WIRE 800 112 720 112
WIRE -384 128 -384 0
WIRE -256 128 -352 128
WIRE -880 144 -880 -16
WIRE 720 144 720 112
WIRE -416 160 -496 160
WIRE -224 160 -288 160
WIRE 128 160 128 -32
WIRE 224 160 224 80
WIRE 224 160 128 160
WIRE 288 160 224 160
WIRE 480 160 368 160
WIRE 640 160 640 112
WIRE 640 160 576 160
WIRE 800 160 800 112
WIRE -192 176 -192 96
WIRE -176 176 -192 176
WIRE 128 176 128 160
WIRE 128 176 80 176
WIRE 224 176 224 160
WIRE -880 192 -880 144
WIRE -784 192 -784 64
WIRE 480 192 400 192
WIRE 640 192 576 192
WIRE -704 208 -704 192
WIRE -496 208 -496 160
WIRE -496 208 -704 208
WIRE -416 208 -464 208
WIRE -608 240 -608 192
WIRE -464 240 -464 208
WIRE -464 240 -608 240
WIRE -704 256 -704 208
WIRE -608 256 -608 240
WIRE -224 256 -224 160
WIRE -176 256 -224 256
WIRE 176 256 80 256
WIRE 400 256 400 192
WIRE 496 256 400 256
WIRE 640 256 640 192
WIRE 640 256 576 256
WIRE 672 256 640 256
WIRE 720 256 720 224
WIRE 720 256 672 256
WIRE 800 256 800 224
WIRE 800 256 720 256
WIRE -384 288 -384 240
WIRE -352 288 -352 240
WIRE -352 288 -384 288
WIRE -256 288 -256 128
WIRE -256 288 -352 288
WIRE -48 336 -48 320
WIRE 224 336 224 272
WIRE 224 336 -48 336
WIRE 400 336 400 256
WIRE 400 336 224 336
WIRE -880 352 -880 272
WIRE -784 352 -784 272
WIRE -704 352 -704 336
WIRE -608 352 -608 336
WIRE -384 352 -384 288
WIRE -48 352 -48 336
FLAG -48 352 0
FLAG -512 -48 0
FLAG -784 352 0
FLAG -384 352 0
FLAG -704 352 0
FLAG -608 352 0
FLAG -512 112 0
FLAG 672 112 out1
FLAG 672 256 out2
FLAG -880 352 0
FLAG -880 144 ref
SYMBOL nmos 176 -16 R0
WINDOW 3 56 89 Left 2
SYMATTR Value IRLML6244
SYMATTR InstName M1
SYMBOL nmos 176 176 R0
SYMATTR InstName M2
SYMATTR Value IRLML6244
SYMBOL voltage -512 -160 R0
WINDOW 123 0 0 Left 0
WINDOW 39 0 0 Left 0
SYMATTR InstName V1
SYMATTR Value 12V
SYMBOL cap 128 -48 R90
WINDOW 0 0 32 VBottom 2
WINDOW 3 36 43 VTop 2
SYMATTR InstName C2
SYMATTR Value 0.22µ
SYMBOL schottky -64 -128 R0
WINDOW 3 -155 0 Left 2
SYMATTR Value RBR1MM60A
SYMATTR InstName D1
SYMATTR Description Diode
SYMATTR Type diode
SYMBOL res 704 128 R0
SYMATTR InstName R1
SYMATTR Value 10
SYMBOL cap 784 160 R0
SYMATTR InstName C1
SYMATTR Value 1µ
SYMBOL ltline 528 176 R0
SYMATTR InstName O1
SYMATTR Value LOSSY
SYMBOL res 592 240 R90
WINDOW 0 59 98 VBottom 2
WINDOW 3 34 33 VTop 2
SYMATTR InstName R2
SYMATTR Value 10k
SYMBOL voltage -784 176 R0
WINDOW 123 0 0 Left 0
WINDOW 39 0 0 Left 0
WINDOW 3 -98 231 Left 2
SYMATTR Value PULSE(0V 12V 0ns 250ns 250ns 0ns 500ns)
SYMATTR InstName V3
SYMBOL Comparators\\AD8561 -384 112 R0
WINDOW 3 39 145 Left 2
SYMATTR InstName U2
SYMBOL res -720 96 R0
SYMATTR InstName R5
SYMATTR Value 1.2k
SYMBOL res -720 240 R0
SYMATTR InstName R6
SYMATTR Value 1k
SYMBOL res -624 240 R0
SYMATTR InstName R4
SYMATTR Value 1k
SYMBOL res -624 96 R0
SYMATTR InstName R3
SYMATTR Value 1.2k
SYMBOL voltage -512 0 R0
WINDOW 123 0 0 Left 0
WINDOW 39 0 0 Left 0
SYMATTR InstName V2
SYMATTR Value 5V
SYMBOL voltage -880 176 R0
WINDOW 123 0 0 Left 0
WINDOW 39 0 0 Left 0
SYMATTR InstName V4
SYMATTR Value 6V
SYMBOL PowerProducts\\LTC4449 -48 176 R0
SYMATTR InstName U1
SYMBOL voltage 272 160 M90
WINDOW 0 -32 56 VBottom 2
WINDOW 3 32 56 VTop 2
WINDOW 123 0 0 Left 0
WINDOW 39 0 0 Left 0
SYMATTR InstName V5
SYMATTR Value 0V
TEXT -880 504 Left 2 !.tran 20us
TEXT -880 456 Left 2 !.model LOSSY LTRA(L=241e-9 C=100e-12 R=40e-3 len=6)
